Circuit: * D:\B.Tech EE1 IITD\SEM-5\ELL304\Assignments\A-1\Draft1.asc

WARNING: Node N005 is floating.

Instance "m1": Length shorter than recommended for a level 1 MOSFET.
Instance "m1": Width narrower than recommended for a level 1 MOSFET.
Direct Newton iteration for .op point succeeded.

Date: Wed Nov  6 22:05:25 2024
Total elapsed time: 0.100 seconds.

tnom = 27
temp = 27
method = modified trap
totiter = 940
traniter = 916
tranpoints = 410
accept = 254
rejected = 156
matrix size = 9
fillins = 0
solver = Normal
Avg thread counts: 5.4/9.2/9.2/5.4
Matrix Compiler1: 646 bytes object code size  0.3/0.2/[0.2]
Matrix Compiler2: 723 bytes object code size  0.2/0.2/[0.1]

