Circuit: * D:\B.Tech EE1 IITD\SEM-5\ELL304\Assignments\A-1\Part-B.asc

Error on line 5 : v2 in 0 v
	 Unknown parameter "v"
Instance "m2": Length shorter than recommended for a level 1 MOSFET.
Instance "m1": Length shorter than recommended for a level 1 MOSFET.
v2: Missing value, assumed 0V @ DC

Date: Wed Nov  6 19:36:56 2024
Total elapsed time: 0.286 seconds.

tnom = 27
temp = 27
method = trap
totiter = 376
traniter = 0
tranpoints = 0
accept = 0
rejected = 0
matrix size = 5
fillins = 0
solver = Normal
Avg thread counts: 9.5/0.0/12.0/9.5
Matrix Compiler1: 150 bytes object code size  0.2/0.2/[0.2]
Matrix Compiler2: 335 bytes object code size  0.2/0.3/[0.1]

