Circuit: * D:\B.Tech EE1 IITD\SEM-5\ELL304\Assignments\A-1\Part-A a).asc

Error on line 4 : v_g n002 0 v
	 Unknown parameter "v"
Instance "m1": Length shorter than recommended for a level 1 MOSFET.
v_g: Missing value, assumed 0V @ DC

Date: Wed Nov  6 12:27:34 2024
Total elapsed time: 0.132 seconds.

tnom = 27
temp = 27
method = trap
totiter = 364
traniter = 0
tranpoints = 0
accept = 0
rejected = 0
matrix size = 4
fillins = 0
solver = Normal
Avg thread counts: 9.6/0.0/12.0/9.6
Matrix Compiler1:       7 opcodes  0.2/[0.2]/0.2
Matrix Compiler2: off  [0.2]/0.2/0.2

