Circuit: * D:\B.Tech EE1 IITD\SEM-5\ELL304\Assignments\A-1\Part-A - b).asc

Instance "m1": Length shorter than recommended for a level 1 MOSFET.
v_d: Missing value, assumed 0V @ DC
.step vgin=0
.step vgin=0.3
.step vgin=0.6
.step vgin=0.9
.step vgin=1.2
.step vgin=1.5
.step vgin=1.8

Date: Wed Nov  6 12:45:22 2024
Total elapsed time: 0.734 seconds.

tnom = 27
temp = 27
method = trap
totiter = 363
traniter = 0
tranpoints = 0
accept = 0
rejected = 0
matrix size = 6
fillins = 0
solver = Normal
Avg thread counts: 9.6/0.0/12.0/9.6
Matrix Compiler1:      14 opcodes  0.3/[0.2]/0.3
Matrix Compiler2: off  [0.2]/0.3/0.2

