Circuit: * D:\B.Tech EE1 IITD\SEM-5\ELL304\Project\Draft2.asc

Ignoring BSIM parameter XL
Ignoring BSIM parameter XW
Ignoring BSIM parameter XL
Ignoring BSIM parameter XW
WARNING: Node N002 is floating.
WARNING: Node N007 is floating.
WARNING: Node N008 is floating.
WARNING: Node N009 is floating.
WARNING: Node N014 is floating.
WARNING: Node N013 is floating.
WARNING: Node N005 is floating.
WARNING: Node N016 is floating.

WARNING: Less than two connections to node n002.  This node is used by m2.
WARNING: Less than two connections to node n007.  This node is used by m3.
WARNING: Less than two connections to node n009.  This node is used by m6.
WARNING: Less than two connections to node n014.  This node is used by m7.
WARNING: Less than two connections to node n013.  This node is used by m8.
Warning: Pd = 0 is less than W.
Warning: Ps = 0 is less than W.
Warning: Pd = 0 is less than W.
Warning: Ps = 0 is less than W.
Instance "m11": Length shorter than recommended for a level 1 MOSFET.
No AC stimulus found:
     Set the value of a current or voltage source to "AC 1."
     to make it behave as a signal generator for AC analysis.
Direct Newton iteration failed to find .op point.  (Use ".option noopiter" to skip.)
Starting Gmin stepping
Gmin = 10
Gmin = 1.07374
Gmin = 0.115292
Gmin = 0.0123794
Gmin = 0.00132923
Gmin = 0.000142725
Gmin = 1.5325e-05
Gmin = 1.6455e-06
Gmin = 1.76685e-07
Gmin = 1.89714e-08
vernier = 0.5
Gmin = 3.18287e-09
vernier = 0.666667
vernier = 0.333333
Gmin = 1.38922e-09
vernier = 0.166667
vernier = 0.0833333
vernier = 0.111111
Gmin = 1.21926e-09
vernier = 0.0555555
vernier = 0.0277778
vernier = 0.0138889
vernier = 0.00694444
vernier = 0.00347222
vernier = 0.00173611
vernier = 0.000868055
vernier = 0.000434028
Gmin = 0
Gmin = 0
Gmin stepping failed

Starting source stepping with srcstepmethod=0
Source Step = 3.0303%
Source Step = 33.3333%
Source Step = 63.6364%
Source Step = 93.9394%
Source stepping succeeded in finding the operating point.


Date: Sun Nov 17 14:15:24 2024
Total elapsed time: 0.288 seconds.

tnom = 27
temp = 27
method = trap
totiter = 2292
traniter = 0
tranpoints = 0
accept = 0
rejected = 0
matrix size = 22
fillins = 18
solver = Normal
Avg thread counts: 2.7/0.0/12.0/2.7
Matrix Compiler1:     165 opcodes
Matrix Compiler2: 2.32 KB object code size  0.6/0.9/[0.4]

